test/resources/V1_10/subnetworks.xml
<?xml version="1.0" encoding="UTF-8"?>
<iidm:network xmlns:iidm="http://www.powsybl.org/schema/iidm/1_10" xmlns:extNetworkSource="http://www.itesla_project.eu/schema/iidm/ext/networksource/1_0" xmlns:mock="http://www.powsybl.org/schema/iidm/ext/terminal_mock/1_10" id="Network-0" caseDate="2013-01-15T18:40:00+01:00" forecastDistance="0" sourceFormat="format" minimumValidationLevel="STEADY_STATE_HYPOTHESIS">
    <iidm:substation id="s1" country="FR">
        <iidm:voltageLevel id="vl1" nominalV="380" topologyKind="BUS_BREAKER">
            <iidm:busBreakerTopology>
                <iidm:bus id="b1"/>
            </iidm:busBreakerTopology>
            <iidm:generator id="GEN" energySource="OTHER" minP="-9999.9899999999998" maxP="9999.9899999999998" voltageRegulatorOn="true" targetP="607" targetV="24.5" targetQ="301" bus="b1" connectableBus="b1">
                <iidm:minMaxReactiveLimits minQ="-9999.9899999999998" maxQ="9999.9899999999998"/>
            </iidm:generator>
            <iidm:danglingLine id="dl1" name="dl1_name" p0="0" q0="0" r="1" x="2" g="4" b="5" ucteXnodeCode="code" bus="b1" connectableBus="b1"/>
        </iidm:voltageLevel>
    </iidm:substation>
    <iidm:substation id="s2" country="FR">
        <iidm:voltageLevel id="vl2" nominalV="380" topologyKind="BUS_BREAKER">
            <iidm:busBreakerTopology>
                <iidm:bus id="b2"/>
            </iidm:busBreakerTopology>
            <iidm:load id="LOAD" loadType="UNDEFINED" p0="600" q0="200" bus="b2" connectableBus="b2"/>
            <iidm:danglingLine id="dl2" name="dl2_name" p0="0" q0="0" r="1" x="2" g="4" b="5" ucteXnodeCode="code" bus="b2" connectableBus="b2"/>
        </iidm:voltageLevel>
    </iidm:substation>
    <iidm:tieLine id="dl1 + dl2" name="dl1_name + dl2_name" danglingLineId1="dl1" danglingLineId2="dl2"/>
    <iidm:extension id="LOAD">
        <mock:terminalMock>
            <mock:terminal id="LOAD"/>
        </mock:terminalMock>
    </iidm:extension>
    <iidm:extension id="Network-0">
        <extNetworkSource:networkSource sourceData="Source_0"/>
    </iidm:extension>
</iidm:network>
